Version 4
SHEET 1 1352 680
WIRE -176 -512 -416 -512
WIRE 704 -512 -48 -512
WIRE -176 -448 -288 -448
WIRE 160 -448 -48 -448
WIRE -416 -416 -416 -432
WIRE -288 -416 -288 -448
WIRE -288 -416 -416 -416
WIRE 704 -304 704 -512
WIRE 1200 -304 704 -304
WIRE 1296 -304 1200 -304
WIRE 1008 -192 896 -192
WIRE 1296 -192 1296 -224
WIRE 1296 -192 1136 -192
WIRE 1008 -176 1008 -192
WIRE 1136 -176 1136 -192
WIRE 896 -160 896 -192
WIRE 896 -160 640 -160
WIRE 704 -32 704 -304
WIRE 640 -16 640 -160
WIRE 656 -16 640 -16
WIRE 672 -16 656 -16
WIRE 896 0 896 -96
WIRE 896 0 736 0
WIRE 1008 0 1008 -96
WIRE 1008 0 896 0
WIRE 1040 0 1008 0
WIRE 1152 0 1120 0
WIRE 1248 0 1152 0
WIRE 80 16 48 16
WIRE 160 16 160 -448
WIRE 160 16 144 16
WIRE 176 16 160 16
WIRE 352 16 256 16
WIRE 512 16 352 16
WIRE 656 16 512 16
WIRE 672 16 656 16
WIRE 1152 48 1152 0
WIRE 352 64 352 16
WIRE 512 64 512 16
WIRE 640 64 640 -16
WIRE 48 96 48 16
WIRE 352 176 352 128
WIRE 352 176 48 176
WIRE 512 176 512 144
WIRE 512 176 352 176
WIRE 640 176 640 144
WIRE 640 176 512 176
WIRE 704 176 704 32
WIRE 704 176 640 176
WIRE 1152 176 1152 112
WIRE 1152 176 704 176
WIRE 1216 176 1152 176
WIRE 704 192 704 176
WIRE 1216 192 1216 176
FLAG 704 192 0
FLAG 1136 -176 0
FLAG 1216 192 0
FLAG 1248 0 ADC
FLAG 656 -16 Vem
FLAG 656 16 Vep
FLAG 1200 -304 +5V
FLAG -416 -416 0
SYMBOL res 272 0 R90
WINDOW 0 0 56 VBottom 2
WINDOW 3 32 56 VTop 2
SYMATTR InstName R1
SYMATTR Value 10k
SYMBOL res 528 160 R180
WINDOW 0 36 76 Left 2
WINDOW 3 36 40 Left 2
SYMATTR InstName R2
SYMATTR Value 100k
SYMBOL res 656 160 R180
WINDOW 0 36 76 Left 2
WINDOW 3 36 40 Left 2
SYMATTR InstName R3
SYMATTR Value 1k
SYMBOL cap 336 64 R0
SYMATTR InstName C1
SYMATTR Value 100n
SYMBOL OpAmps\\LTC1050 704 -64 R0
SYMATTR InstName U1
SYMBOL cap 880 -160 R0
SYMATTR InstName C2
SYMATTR Value 1µ
SYMBOL cap 1136 48 R0
SYMATTR InstName C4
SYMATTR Value 100n
SYMBOL res 992 -192 R0
SYMATTR InstName R4
SYMATTR Value 100k
SYMBOL res 1136 -16 R90
WINDOW 0 0 56 VBottom 2
WINDOW 3 32 56 VTop 2
SYMATTR InstName R5
SYMATTR Value 1k
SYMBOL voltage 1296 -320 R0
WINDOW 123 0 0 Left 0
WINDOW 39 0 0 Left 0
SYMATTR InstName V1
SYMATTR Value 5
SYMBOL voltage 48 80 R0
WINDOW 123 0 0 Left 0
WINDOW 39 0 0 Left 0
SYMATTR InstName V2
SYMATTR Value SINE(0 325 50)
SYMBOL cap 80 32 R270
WINDOW 0 32 32 VTop 2
WINDOW 3 0 32 VBottom 2
SYMATTR InstName C5
SYMATTR Value 1p
SYMBOL capteur -112 -480 R0
SYMATTR InstName X1
SYMBOL voltage -416 -528 R0
WINDOW 123 24 44 Left 2
WINDOW 39 0 0 Left 0
SYMATTR Value2 AC 1
SYMATTR InstName V3
SYMATTR Value PULSE(0 1 0.2 0.1 0.1 20)
TEXT 352 -312 Left 2 !.tran 2
TEXT 352 -232 Left 2 !;ac dec 100 1 1G
